 BEGIN_INFO
   #
   # This is a XCRYSDEN-Structure-File
   #
   # aimed for Visualization of geometry
   #
   # Launch as: xcrysden --xsf .HICOLM.XSF
   #
   #
 END_INFO
 # estrutura final
CRYSTAL
PRIMVEC
      35.17132636       0.00000000       0.00000000
       0.00000000      35.17132636       0.00000000
       0.00000000       0.00000000      35.17132636
PRIMCOORD
  927    1
