 BEGIN_INFO
   #
   # This is a XCRYSDEN-Structure-File
   #
   # aimed for Visualization of geometry
   #
   # Launch as: xcrysden --xsf .HICOLM.XSF
   #
   #
 END_INFO
 # estrutura final
CRYSTAL
PRIMVEC
      25.00000023       0.00000000       0.00000000
       0.00000000      25.00000023       0.00000000
       0.00000000       0.00000000      25.00000023
PRIMCOORD
  927    1
