 BEGIN_INFO
   #
   # This is a XCRYSDEN-Structure-File
   #
   # aimed for Visualization of geometry
   #
   # Launch as: xcrysden --xsf .HICOLM.XSF
   #
   #
 END_INFO
 # estrutura final
CRYSTAL
PRIMVEC
      17.11255474       0.00000000       0.00000000
       0.00000000      17.11255474       0.00000000
       0.00000000       0.00000000      17.11255474
PRIMCOORD
  927    1
