 BEGIN_INFO
   #
   # This is a XCRYSDEN-Structure-File
   #
   # aimed for Visualization of geometry
   #
   # Launch as: xcrysden --xsf .HICOLM.XSF
   #
   #
 END_INFO
 # estrutura final
CRYSTAL
PRIMVEC
      22.19312558       0.00000000       0.00000000
       0.00000000      22.19312558       0.00000000
       0.00000000       0.00000000      22.19312558
PRIMCOORD
  927    1
