 BEGIN_INFO
   #
   # This is a XCRYSDEN-Structure-File
   #
   # aimed for Visualization of geometry
   #
   # Launch as: xcrysden --xsf .HICOLM.XSF
   #
   #
 END_INFO
 # estrutura final
CRYSTAL
PRIMVEC
      21.01365639       0.00000000       0.00000000
       0.00000000      21.01365639       0.00000000
       0.00000000       0.00000000      21.01365639
PRIMCOORD
  927    1
