 BEGIN_INFO
   #
   # This is a XCRYSDEN-Structure-File
   #
   # aimed for Visualization of geometry
   #
   # Launch as: xcrysden --xsf HICOLM.XSF
   #
   #
 END_INFO
 # estrutura final
CRYSTAL
PRIMVEC
      21.22663426       0.00000000       0.00000000
       0.00000000      21.22663426       0.00000000
       0.00000000       0.00000000      21.22663426
PRIMCOORD
  927    1
    8    8.70075841    1.65612259   10.09568787    -31.29190627   -8.01687169   13.72393183      7.17659595    7.61445854    5.86843652
    1    9.45350677    2.22103715   10.22140716     28.71815184    1.07239488  -11.63513033    -26.23087821  -19.51302816    4.68468887
    1    9.01624173    0.96016719    9.50489093     16.18524182    6.77670707    1.25340520     23.66550366   -5.77363541    1.37110581
    8   -6.78024449   -0.43666328   -7.12945968  -1479.92224903   92.03650416-1259.08694487     -0.10269653    4.45793324    1.72149282
    1   -7.72649271   -0.27292564   -6.92989578    271.83865233   80.72675120 1191.14440128     14.78085942   16.55342022   84.48562159
    1   -6.75144184   -0.54525888   -8.10387274   1209.05310844 -174.19752424   71.21271292     81.60719750    3.02843173  -14.26296580
    8   -9.58485364   -6.05387708   -6.95209580    -39.41477060   28.81511203  -62.70945226      4.81787195    6.88823494    3.45930284
    1  -10.26702672   -6.51357596   -7.40678810    -17.68696308  -67.57968464   35.72730124      2.37842971    3.65286002    6.75643145
    1   -9.43793745   -5.27564930   -7.46930048     56.84156684   43.52490446   25.91087004     12.20442809  -14.84237982   29.83540127
    8   10.22124774    9.11283659    5.86016602   -360.85532212  107.51461745   11.51386851      7.51143640    7.50264063    6.82394380
    1   10.55610842    8.30242735    5.41924215    206.42205162   59.75525894   66.53797696     17.10831359   -9.97342852   -2.22403554
    1  -10.23251354    9.52072622    6.22705513    159.84104670 -165.53134752  -76.84822496    -33.13182041  -11.46091110   -9.75931775
    8   10.48977660   -4.10082811   -4.79767344    137.52556039 -106.23742300   10.98690933      5.41290350    3.61652044    5.97900213
    1  -10.47503450   -4.48812093   -3.96642217    -85.36472050   48.73508761   72.84840282     -8.20016953   24.56765624  -11.73649049
    1  -10.15021008   -4.49840436   -5.44324613    -52.17152787   56.46837856  -89.78882926     14.78267859    9.34100533    2.82501186
    8   -3.60078599   -5.78527531    8.63400997   1621.43004269-1797.31849293 2556.01167232      5.37735904    7.99461088    0.88120481
    1   -3.91620090   -6.55511843    9.11693574  -1884.34606457   34.33434641-1172.84912654     57.37443068    7.36958365   49.11581147
    1   -2.74681056   -5.61264000    9.00081393    266.08670977 1762.34405510-1384.10368999    -45.07900832  -40.61027030   28.51802130
    8   -3.54926334   -2.52907692    1.18092315   -954.09116746 1123.91899837  681.62268382     -5.37185963   15.15158958   11.22522102
    1   -3.19881255   -3.24744977    1.57600982    448.51896523 -314.84965862 -763.09230410     79.59876439   30.49425115 -234.08190839
    1   -3.25809399   -2.56672963    0.35677892    499.33198791 -810.46821609   92.63589860     88.06702913 -186.22383575  153.61117450
    8    0.26088304   -8.68370976   -1.54875935   -569.88664686  100.72912626 -149.87269080      3.11801907    6.46837860    6.87962287
    1   -0.33961734   -8.14582757   -1.08711709    260.05851200  113.05289028  296.16292324     37.76194164  -12.57926145  -10.80797674
    1   -0.24330984   -9.02453896   -2.29040854    310.11691105 -213.29013372 -144.87739760      5.23820792    4.91660399   -3.19514979
    8   -9.27225445   -6.65799715    8.33975260    102.58578619 -120.67184552   46.26323091     -1.17349584   12.92203675    1.29913801
    1  -10.21397688   -6.68244749    8.49590012    -24.74360081   76.65875479  -32.69858275     19.51147187  -62.95550644   46.36182942
    1   -9.11901727   -5.81333586    7.95014771    -80.27736100   46.85423060  -11.72879841     90.80241914  -44.50562531   27.26954977
    8    1.85665874    4.11798633    1.19353994    -61.92276568  211.79439003 -921.91834236      6.88015550    4.60165923    6.75022594
    1    2.58346077    4.25896316    1.76428767   -276.16220129 -227.39228783  459.12282562    -29.53075605    5.85522850  -28.54447242
    1    1.19317987    3.71924944    1.74532687    337.76866436   13.75306799  456.30652102     13.00867449   12.44240582    6.34575066
    8   -9.61932883   -5.17860987   -0.74212152     95.14715233  204.52848145  215.60016407      5.98162848    7.79165582    7.06908060
    1   -9.83510000   -6.10285634   -0.57821852    -36.13640897  -20.77312384 -181.04168515      2.25286452  -14.10144909   -6.10482915
    1   -9.74200853   -5.06693078   -1.68328059    -58.23571738 -181.71976523  -27.88719538     -2.98209821  -13.28924890   -2.68662680
    8   -8.59058187   -2.35962699    6.05826415    742.10016438  462.52312836 -513.57689318      3.24696225    5.16802670    4.34420250
    1   -8.62922411   -3.27845670    6.34314759   -561.54381018   90.80715197  261.24835301     11.49251476    5.85011964   13.10185061
    1   -9.40310555   -1.97695923    6.37307545   -187.02229382 -550.71761716  250.91123911     21.46637804    9.36736562    8.36559040
    8    0.47831730   -9.09403180    4.51298436   2400.19344229-3488.25213455-5772.69322658      3.28788602    5.79805606    7.95162573
    1    0.51577643   -9.38833855    5.44267978  -2048.63284595 3842.98239253 1287.36984900     25.40919798   -0.63387722   -4.71725940
    1    0.04214426   -8.21786867    4.54352346   -352.44644250 -349.68010111 4494.86732888     18.12315205   10.26717820  -14.32979381
    8   -7.79164239   -7.68645362   10.50219806     23.57313053-1027.61696363  116.84744060      6.53371678    7.51786095    8.25664433
    1   -7.35898469   -7.03000003  -10.20771816   -247.62758748  498.36709261 -356.22990187    -19.03791255  -32.92979427  -24.45401425
    1   -8.28388227   -7.18159302    9.82512461    218.12589001  533.40210025  245.83345659      2.50445879   15.33252784   -1.81170239
    8   -3.99301868    4.46832141   -1.83883924  -1696.62264952  619.02401859  523.25366709      5.91000457    7.33905523    6.10305045
    1   -4.86272611    4.06262626   -2.00120662    530.52661418 -897.90382878 -582.08448940    -19.42357315   -1.07890854    5.33903145
    1   -4.19129613    5.27109700   -1.34504049   1166.72931497  276.94782596   56.54948052     19.59256461  -22.14658805  -10.02456298
    8    3.33522359   -5.11838164    9.23541978   6658.47030830-7241.32284658-3409.26048297     12.02369161   -1.84638261    4.21010811
    1    2.45728057   -4.83225358    8.81791713   -842.60513564 4281.03019626 4800.78991829    -25.30049359   86.63097066   76.05668348
    1    3.42917604   -4.56107152   10.04257708  -5822.88793286 2959.22606094-1387.07318214    -81.97879692   35.59844964  -41.86157558
    8   -0.85105740    7.06742126    3.63255195   2415.96379082 1136.42730243-3569.25878576      1.27006776    1.93748734   13.84784143
    1   -1.17122524    7.31562984    2.73192611  -2646.60116592 -355.66454972  863.49154615     96.69738488   27.94405605  -39.33875635
    1    0.12315821    7.12356303    3.56618798    226.62270630 -781.06164614 2708.10413244    -27.29963393   35.80807769  -84.06315430
    8   -1.20603183   -1.79437003   -5.83710696  -1266.70536292 -928.99344466  551.61635539      5.47747848    8.02560205    5.23800701
    1   -0.52127890   -2.03925202   -6.50466908    433.72662220  936.89771057  116.92260551     13.46968096   -0.12891374    0.72368666
    1   -0.97633715   -0.89833762   -5.57120935    832.33571043   -3.39334157 -669.03200127     -8.81495806  -26.35896003   10.31204966
    8    1.37390627    4.28047397    8.99432414     79.68073498 -478.18160414  369.12959947      7.16835783    5.55830848    7.64716455
    1    1.90889430    4.24519132    9.73255437    148.37517087  399.31101577  -17.58065466    -33.61446618    1.43191118  -43.15325984
    1    0.99157963    3.42722800    8.94110211   -225.06842913   81.17065152 -344.51582648     16.48241811    6.86114936   25.73251241
    8    1.47172294   -0.23563056   -8.59125097  -1102.65564978  364.59072986-1016.17724811      2.51280026    7.59578598    3.56265766
    1    0.93886623    0.56520340   -8.63030551    462.07791920  362.22005716  785.78384943     38.50289776    9.99743163   37.88065962
    1    1.16167926   -0.76257040   -9.32005625    646.10122165 -719.51625556  230.21838895     22.05926261  -25.65408119   -0.55550952
    8   -1.69806308   -0.07611760   -0.45560384  -1147.87948058 3744.46539703-2204.67509401      7.23670062    4.67296038    4.68929420
    1   -2.59771977    0.21713225   -0.75369832  -1104.36193894-2340.59283824 1100.69846702    -16.73919138   25.60774658    0.96940802
    1   -1.10528675    0.63314342   -0.75058217   2244.82676155-1408.09053732 1101.74583411    -12.66375287  -11.94601403   14.06807098
    8    4.35881930   -1.85223391    9.14049792  -1078.30296914 -435.41504183 -290.10952662      7.83188934    7.79156803    7.71869564
    1    5.19420409   -2.09276505    8.77585751    354.06133908  473.68105129  437.76798615    -14.34330369   10.04891295   14.73832015
    1    4.56092994   -1.19920343    9.78355791    728.53865521  -35.16350544 -136.02979802    -14.20714436  -35.14433095  -26.41858134
    8    8.17446992    4.59902304    0.52655362    681.10867699-1636.96985177-3560.98576626      5.22713341    7.75476658    7.93324039
    1    8.55949336    5.35969193    0.87560161  -1314.53375376 -237.72554676 2115.05537129    -22.85423151  -51.46969664  -25.08104776
    1    7.58815033    4.29705276    1.19947993    630.31277663 1866.09626409 1439.92900678     25.78825382   12.38546222  -11.93154088
    8   -7.18327669    2.12632654    4.97901439  -6242.85265486 2624.91122384 7012.08803718      9.43560914    2.78028330   -2.60723945
    1   -6.79974890    1.23054797    4.82070994   3123.06259582 2216.95696384-4825.02423031    -30.38747509  -34.46937639   80.88746068
    1   -6.79728179    2.69897465    4.27302863   3115.34012354-4842.91688991-2189.26822774    -31.09313205   82.26912595   51.02971744
    8   -6.54662307    7.86682794    8.55761000   1104.24838502 -437.48590919  664.59820384      2.80012273    5.48509510    2.70503948
    1   -6.50298067    7.31962887    9.35720257   -860.84184898  -24.61719460   24.07242752     53.12179320   19.07080298    8.99045548
    1   -5.61558856    8.03234722    8.32541123   -245.29120212  456.79161849 -685.06060078     -5.72534608  -18.29476631   47.22041648
    8  -10.43190525    3.56917442   -8.39594766    190.27433174 -316.37278558  -22.28342350      3.93342733    3.73503188    5.48123532
    1  -10.31102083    2.91987090   -7.69279985   -131.00079860  127.49532448  151.04642277      6.00626966   22.15580861    7.95093112
    1   -9.95798216    3.19558521   -9.15569533    -64.75103835  187.19625584 -131.40196038     18.37846311   10.49167358   -3.46997623
    8   -3.95685765   -5.67394961   -4.12566272   -108.55724603 -772.48918767 -817.19587076      5.68004970    8.60166783    8.97357306
    1   -3.80455836   -5.83648987   -3.18619031      5.40050511  703.24457774  123.14083129      4.19102772  -25.96443918  -18.79217855
    1   -3.98226951   -4.70438955   -4.20555978    105.51787657   67.11863992  697.91190875      3.82014361  -19.30204857  -24.96813816
    8   -2.02384159    4.07358904    8.14153703    389.60389442  -87.62254001 -581.55505858     10.07003361    6.11684081   -3.13039033
    1   -1.90659744    3.28348010    7.61578031   -280.05527359 -247.93782974  276.91896623    -31.74010942  -31.92515203   51.60662825
    1   -1.50078398    4.73337526    7.69920934   -112.95467386  335.15309952  297.49742013    -39.28265098   30.60482666   81.61497551
    8    4.50178951   -3.90980310   -8.70028679   -478.95479721  303.69993915  296.33285716      4.57598853    4.31206566    6.20165355
    1    3.83501921   -3.37329618   -9.09071682    148.67802110  -47.18402898 -405.93731660     11.88947353   -0.45560537   31.51039057
    1    4.29225241   -3.91850120   -7.79362268    334.34255141 -262.18958111  113.31020442     12.14367257   18.31769496  -32.19398042
    8    7.51095598   -6.08037318   -0.17406399   -164.04512997  215.33932462 -516.31330679      4.40816537    4.65373450    7.48985442
    1    8.04878464   -6.85418753   -0.02242833    -10.83962244   37.58571933  344.89630505      6.58056908   21.80080369   12.15486433
    1    7.33254847   -5.74680604    0.68163529    178.80287887 -253.26846887  174.18593901     22.48258568   -2.57006891  -33.14573136
    8    3.70465278    9.86395852    0.07749628  -7810.47856273-1207.61754930-5003.33063386      7.77951135    7.03738533    7.10184266
    1    4.10392727  -10.54967796    0.31531359   4325.91809329-2914.48698425 2860.06317245    -16.29089820  -47.52988190   -7.52993364
    1    4.26853082    9.19016815    0.45804788   3491.71933699 4122.23159039 2153.58513460     -3.70432474   27.06694461    4.24989932
    8    7.19468291    0.11678292   -3.85760111   5799.20467161 5160.14601280 3403.87962215     10.91213770    9.80944833    9.62574137
    1    7.59774274    0.93096276   -4.25102392  -2939.21102652 -680.85594604-4387.49505413    -39.84436771  -14.51618314  -39.59290594
    1    7.61902031    0.04111164   -2.98392194  -2860.67881459-4477.46931143  993.99426883    -39.71659271  -42.91811006   -4.94326055
    8    3.00190567    2.02610543  -10.12421551    384.73418755 -225.75661315  -86.84192394      4.76031676    4.44530595    3.48190764
    1    3.56638435    2.18149268   10.35824916   -170.70758980  220.78445450 -112.24808186      4.46635139   10.01061676   20.60007145
    1    3.42431424    1.29391474   -9.64766065   -216.40515156    5.40105716  194.63708490     10.41412600   13.65224897    9.92338603
    8    5.62519413   -5.97563360   -2.23213801     13.55150175  324.49792794-2590.94250259      6.10622482    6.16313973   14.76292427
    1    5.98423586   -5.38745009   -1.57529125   -488.45359782-1046.22497771 1223.44050397     17.11323194   32.55072556  -88.31074473
    1    5.25169504   -6.72910579   -1.71530796    474.05470803  719.79504278 1363.27688792    -20.03907900  -39.51052077  -57.56377128
    8    6.35389953    3.75585916    2.31569895  -4093.27006312 1792.54227163 1660.39858170     13.89095056    3.60844767    3.75110705
    1    5.44591895    3.39795553    2.21177772   1099.87329443-2299.74952742-1571.34121497    -49.66870544   75.43723667   57.88016378
    1    6.23368768    4.56390590    2.83244392   2992.41148328  502.67786505  -77.22360449    -76.85300312  -41.53215775   -6.98853997
    8   -3.44629066   -1.91770943    6.32835761   2337.49019410 2416.92830840 2793.63530812      5.73035103    6.04632549    5.73624125
    1   -3.94220543   -2.72316579    6.51512653   -768.49730408 -152.84313798-2618.43363801     -0.42485488    2.43420019   -1.77381622
    1   -3.57781237   -1.76201325    5.39491080  -1568.92635070-2260.80290533 -176.29775631      2.46386452   -0.55397869    4.35524414
    8    3.00464878    5.23101895   -3.85291328  **************11402.27754234**************     11.76556715   -1.53989206   15.71429180
    1    2.86075199    5.31548542   -2.76569217  12966.52905551-9950.31005103 2359.02809182    -96.17436410   87.93032808  -28.15904815
    1    3.87433069    4.57146240   -3.99548086   1404.84325170-1456.8932741516376.99644046      0.93674334   25.23458641 -119.82463253
    8    7.52442642   -1.77535399  -10.29980295  -3752.69487248-1651.72510399 5288.45244440      5.75517310    7.48542605    2.23405825
    1    7.06800090   -1.19060917   -9.70637382   1437.20940748 3374.62781393-2195.29535509     15.12821422  -39.57571762   12.64878602
    1    7.32181112   -2.65343471   -9.96676304   2315.43364403-1717.40029028-3099.09236381    -12.32634131   21.56311508   37.40388934
    8    1.59338571   -2.15056192   -3.40918336    341.29408448  -38.45675225 -178.11517210      4.01816611    5.05879271    3.85079393
    1    2.27617262   -2.79936915   -3.30404483   -125.93244844 -133.84666257  194.82360547     11.39920582   38.11860771   -6.72105611
    1    1.89985704   -1.59782039   -4.09796553   -214.37148644  169.49191138  -18.89470003     17.66534574  -27.94167340   33.91792908
    8    5.83762624   -8.24694612   -5.23690500  -2287.84622344-1229.31105720**************