 BEGIN_INFO
   #
   # This is a XCRYSDEN-Structure-File
   #
   # aimed for Visualization of geometry
   #
   # Launch as: xcrysden --xsf .HICOLM.XSF
   #
   #
 END_INFO
 # estrutura final
CRYSTAL
PRIMVEC
      21.00000000       0.00000000       0.00000000
       0.00000000      21.00000000       0.00000000
       0.00000000       0.00000000      21.00000000
PRIMCOORD
    6    1
    6    7.41279381    7.58538462    7.52116299     -0.00000000   -0.00000000    0.00000000     -0.00000000   -0.00000000   -0.00000000
    6    8.93352619    7.41461538    7.52116299      0.00000000   -0.00000000    0.00000000     -0.00000000    0.00000000    0.00000000
    1    6.91635466    6.59147140    7.51430418      0.00000000    0.00000000    0.00000000      0.00000000    0.00000000   -0.00000000
    1    7.08994035    8.14490559    8.42516172      0.00000000   -0.00000000   -0.00000000      0.00000000    0.00000000    0.00000000
    1    9.42996534    8.40852860    7.51430418      0.00000000    0.00000000   -0.00000000     -0.00000000   -0.00000000    0.00000000
    1    9.25637965    6.85509441    8.42516172     -0.00000000    0.00000000   -0.00000000      0.00000000   -0.00000000    0.00000000
