 BEGIN_INFO
   #
   # This is a XCRYSDEN-Structure-File
   #
   # aimed for Visualization of geometry
   #
   # Launch as: xcrysden --xsf HICOLM.XSF
   #
   #
 END_INFO
 # estrutura final
CRYSTAL
PRIMVEC
      21.00203789       0.00000000       0.00000000
       0.00000000      21.00203789       0.00000000
       0.00000000       0.00000000      21.00203789
PRIMCOORD
    6    1
    6    9.26158644    9.43030871    9.54853216     80.93255284  -20.65902357   -2.03600040     11.39646316    8.74012388    5.84036204
    6  -10.03283069    9.49031514    9.63479281    -66.94316117   -1.64397240    5.51258182      6.84676086    3.84177141    9.85633024
    1    9.14998790    8.64265396    8.77809466     -5.97307798    1.02186479   -3.34000311     -0.78179919   -1.95518669  -10.45412653
    1    8.76996472   10.24870061    8.99712132      5.83180540   14.47803286    5.78829941    -25.13442703    8.53318938   12.72577972
    1   -9.51824618   10.16548043   10.38533578     -6.04292210    0.75296036  -17.17218437    -14.68484547   15.53293027   -7.55241322
    1   -9.40301365    8.82068947    8.97002231     -7.80519699    6.05013796   11.24730664      0.70307856    5.45463287   -4.27133692
