 BEGIN_INFO
   #
   # This is a XCRYSDEN-Structure-File
   #
   # aimed for Visualization of geometry
   #
   # Launch as: xcrysden --xsf HICOLM.XSF
   #
   #
 END_INFO
 # estrutura final
CRYSTAL
PRIMVEC
      21.00000000       0.00000000       0.00000000
       0.00000000      21.00000000       0.00000000
       0.00000000       0.00000000      21.00000000
PRIMCOORD
    6    1
    6    7.41296381    7.41311483    7.65009428     -0.00000000   -0.00000000    0.00000000     -0.00000000   -0.00000000    0.00000000
    6    8.93335619    7.58688517    7.65009428     -0.00000000   -0.00000000    0.00000000      0.00000000   -0.00000000    0.00000000
    1    7.09121529    6.85295775    6.74609554      0.00000000    0.00000000   -0.00000000      0.00000000   -0.00000000    0.00000000
    1    6.91456398    8.40604632    7.65695309      0.00000000   -0.00000000   -0.00000000     -0.00000000    0.00000000    0.00000000
    1    9.25510471    8.14704225    6.74609554      0.00000000    0.00000000   -0.00000000      0.00000000    0.00000000   -0.00000000
    1    9.43175602    6.59395368    7.65695309     -0.00000000    0.00000000   -0.00000000     -0.00000000    0.00000000   -0.00000000
