 BEGIN_INFO
   #
   # This is a XCRYSDEN-Structure-File
   #
   # aimed for Visualization of geometry
   #
   # Launch as: xcrysden --xsf HICOLM.XSF
   #
   #
 END_INFO
 # estrutura final
CRYSTAL
PRIMVEC
      21.00000000       0.00000000       0.00000000
       0.00000000      21.00000000       0.00000000
       0.00000000       0.00000000      21.00000000
PRIMCOORD
    6    1
    6    7.40664456    7.51155387    7.51536688      0.54345138   -0.11477704   -0.25668272      0.02154477   -0.00062865   -0.09776467
    6    8.93950991    7.48845197    7.51575788     -0.48955107    0.11331552   -0.32854241     -0.02530498    0.00062840   -0.09947114
    1    6.98739006    6.59985715    7.99308056      0.34787460    0.22222217    0.17652160      0.56475660   -0.00534588    0.48767286
    1    7.01281469    8.42342204    8.01424149      0.45921091   -0.25169310    0.10365279      0.77305402   -0.16838524    0.67155235
    1    9.35993776    8.40040772    7.99195962     -0.37524723   -0.22054384    0.18904508     -0.54363236   -0.01090612    0.50385051
    1    9.33447021    6.57624335    8.01313001     -0.48573859    0.25147629    0.11600566     -0.74936944    0.18464016    0.68729640
