 BEGIN_INFO
   #
   # This is a XCRYSDEN-Structure-File
   #
   # aimed for Visualization of geometry
   #
   # Launch as: xcrysden --xsf HICOLM.XSF
   #
   #
 END_INFO
 # estrutura final
CRYSTAL
PRIMVEC
      21.00000000       0.00000000       0.00000000
       0.00000000      21.00000000       0.00000000
       0.00000000       0.00000000      21.00000000
PRIMCOORD
    6    1
    6    7.41459603    7.52798743    7.48890075      0.17246301   -0.41308382   -0.00243865      0.03799686   -0.09548570    0.00218228
    6    8.93251028    7.48039267    7.68378211     -0.28857080   -0.36218444   -0.57830904     -0.07464586   -0.07340065   -0.02045415
    1    6.93425945    6.57773236    7.80666558      0.05548819    0.22618254    0.47954584     -0.02663487    0.42295438    1.18038256
    1    6.96526566    8.39791897    8.01441724      0.19010808    0.15558724   -0.40193510      0.27999241    0.58828989   -1.11100800
    1    9.42087431    8.37706838    7.24453103     -0.11727676    0.00793210    0.69084680      0.03467832    0.67658459    1.23272141
    1    9.36287077    6.54741839    7.25991231     -0.01221171    0.38556638   -0.18770984      0.14869416    0.32471533   -1.08435815
