 BEGIN_INFO
   #
   # This is a XCRYSDEN-Structure-File
   #
   # aimed for Visualization of geometry
   #
   # Launch as: xcrysden --xsf HICOLM.XSF
   #
   #
 END_INFO
 # estrutura final
CRYSTAL
PRIMVEC
      21.00000000       0.00000000       0.00000000
       0.00000000      21.00000000       0.00000000
       0.00000000       0.00000000      21.00000000
PRIMCOORD
    6    1
    6    7.45871806    7.44902213    7.51570492    -29.72099948   -7.59253758   -1.39453909      3.19404686   -1.39038038   -1.99375242
    6    8.88760194    7.55097787    7.51570492     29.72099941    7.59253762   -1.39453912     -3.19404688    1.39038038   -1.99375243
    1    7.08476292    8.47964305    7.49153735     -6.72248477    7.17296075   -0.07256751      6.79751289   10.66226285   10.55785204
    1    7.25881472    7.01393717    8.51296997     -9.06325236   -1.87827296    1.46710658      3.52058010   -3.03506766   13.20081671
    1    9.26155708    6.52035695    7.49153734      6.72248480   -7.17296071   -0.07256745     -6.79751270  -10.66226277   10.55785211
    1    9.08750527    7.98606283    8.51296997      9.06325240    1.87827289    1.46710658     -3.52058012    3.03506758   13.20081671
