 BEGIN_INFO
   #
   # This is a XCRYSDEN-Structure-File
   #
   # aimed for Visualization of geometry
   #
   # Launch as: xcrysden --xsf HICOLM.XSF
   #
   #
 END_INFO
 # estrutura final
CRYSTAL
PRIMVEC
      21.00013634       0.00000000       0.00000000
       0.00000000      21.00013634       0.00000000
       0.00000000       0.00000000      21.00013634
PRIMCOORD
    6    1
    6    7.51004802    7.50491601    7.60514463    -69.98345510    1.77817380    6.86935552      2.40941065    4.81651001    5.20362554
    6    8.84644805    7.50530469    7.60511865     82.80473898   19.79046362    2.58897216      7.80955857    5.56035633    5.12673940
    1    6.97771393    6.57262472    7.41663292     -9.00754398   -9.13754141   -4.44115976     14.95519404   15.24131434   15.78511122
    1    6.97712269    8.46325173    7.61679111     -7.16063665    6.22424471   -2.44677622     14.25816477   20.87670847   16.23224283
    1    9.40235421    8.46089335    7.41690385     -3.05064620   -5.93939297   -0.75849142     16.98559488   16.04611035   16.58277751
    1    9.40375691    6.57088443    7.61683441      6.39754295  -12.71594774   -1.81190027     20.09150480   12.24473501   16.36287328
