 BEGIN_INFO
   #
   # This is a XCRYSDEN-Structure-File
   #
   # aimed for Visualization of geometry
   #
   # Launch as: xcrysden --xsf HICOLM.XSF
   #
   #
 END_INFO
 # estrutura final
CRYSTAL
PRIMVEC
      20.00017394       0.00000000       0.00000000
       0.00000000      20.00017394       0.00000000
       0.00000000       0.00000000      20.00017394
PRIMCOORD
    6    1
    8    7.55331490    7.54584849    3.63577918    491.10774390  -99.59352642 -118.38532271      0.36290945    5.10048517    4.90808140
    1    6.75957514    6.87824810    3.78308475   -178.93371148  383.21362385   61.34660085     51.90000706   49.96703620    6.75469169
    1    7.12287705    8.51191974    3.78534198   -312.13302993 -283.63006693   56.95514776     35.90673781  -37.45777631    8.49913181
    8    7.55331154    7.54584890   -9.36394727    490.74997277  -99.50541107 -117.39931940      0.35791754    5.10123782    4.95494256
    1    6.75936986    6.87826799   -9.21745386   -178.83592118  383.00060397   60.92902148     51.86132353   49.96557493    6.71180953
    1    7.12267523    8.51197785   -9.21517460   -311.95505408 -283.48522341   56.55387203     35.86919546  -37.43727093    8.44843785
